@<TRIPOS>MOLECULE
default_name
  566   606    18     0     1 
SMALL
USER_CHARGES
@<TRIPOS>ATOM
  1 HO5'   -1.168000   -2.720000    9.639000 HO    1 DT5     0.4422 ****
  2 O5'    -0.459000   -3.244000   10.019000 OH    1 DT5    -0.6318 ****
  3 C5'    -0.642000   -3.823000   11.325000 CI    1 DT5    -0.0069 ****
  4 H5'    -1.500000   -4.496000   11.307000 H1    1 DT5     0.0754 ****
  5 H5''   -0.817000   -3.031000   12.053000 H1    1 DT5     0.0754 ****
  6 C4'     0.600000   -4.607000   11.726000 CT    1 DT5     0.1629 ****
  7 H4'     0.615000   -4.669000   12.814000 H1    1 DT5     0.1176 ****
  8 O4'     0.462000   -5.980000   11.287000 OS    1 DT5    -0.3691 ****
  9 C1'     1.378000   -6.276000   10.262000 CT    1 DT5     0.0680 ****
 10 H1'     1.865000   -7.245000   10.374000 H2    1 DT5     0.1804 ****
 11 N1      0.633000   -6.419000    8.945000 N*    1 DT5    -0.0239 ****
 12 C6     -0.696000   -6.056000    8.873000 C2    1 DT5    -0.2209 ****
 13 H6     -1.136000   -5.618000    9.756000 H4    1 DT5     0.2607 ****
 14 C5     -1.446000   -6.166000    7.767000 C2    1 DT5     0.0025 ****
 15 C7     -2.887000   -5.745000    7.740000 CT    1 DT5    -0.2269 ****
 16 H71    -2.961000   -4.685000    7.980000 HC    1 DT5     0.0770 ****
 17 H72    -3.300000   -5.922000    6.746000 HC    1 DT5     0.0770 ****
 18 H73    -3.449000   -6.323000    8.474000 HC    1 DT5     0.0770 ****
 19 C4     -0.828000   -6.703000    6.585000 C     1 DT5     0.5194 ****
 20 O4     -1.436000   -6.840000    5.527000 O     1 DT5    -0.5563 ****
 21 N3      0.500000   -7.055000    6.725000 NA    1 DT5    -0.4340 ****
 22 H3      0.983000   -7.446000    5.829000 H     1 DT5     0.3420 ****
 23 C2      1.277000   -6.953000    7.852000 C     1 DT5     0.5677 ****
 24 O2      2.446000   -7.295000    7.865000 O     1 DT5    -0.5881 ****
 25 C3'     1.923000   -4.080000   11.168000 CE    1 DT5     0.0713 ****
 26 H3'     1.790000   -3.180000   10.567000 H1    1 DT5     0.0985 ****
 27 C2'     2.470000   -5.213000   10.280000 CT    1 DT5    -0.0854 ****
 28 H2'     3.139000   -4.796000    9.528000 HC    1 DT5     0.0718 ****
 29 H2''    3.016000   -5.927000   10.896000 HC    1 DT5     0.0718 ****
 30 O3'     2.826000   -3.792000   12.245000 OS    1 DT5    -0.5232 ****
 31 P       3.490000   -2.333000   12.423000 P     2 DG      1.1659 ****
 32 OP1     4.872000   -2.543000   12.912000 O2    2 DG     -0.7761 ****
 33 OP2     2.551000   -1.486000   13.194000 O2    2 DG     -0.7761 ****
 34 O5'     3.581000   -1.733000   10.944000 OS    2 DG     -0.4954 ****
 35 C5'     4.854000   -1.401000   10.386000 CI    2 DG     -0.0069 ****
 36 H5'     5.567000   -1.239000   11.193000 H1    2 DG      0.0754 ****
 37 H5''    4.771000   -0.495000    9.787000 H1    2 DG      0.0754 ****
 38 C4'     5.343000   -2.533000    9.510000 CT    2 DG      0.1629 ****
 39 H4'     5.832000   -3.294000   10.118000 H1    2 DG      0.1176 ****
 40 O4'     4.201000   -3.194000    8.961000 OS    2 DG     -0.3691 ****
 41 C1'     4.563000   -3.826000    7.773000 CT    2 DG      0.0358 ****
 42 H1'     4.898000   -4.850000    7.942000 H2    2 DG      0.1746 ****
 43 N9      3.355000   -3.987000    6.956000 N*    2 DG      0.0577 ****
 44 C8      2.054000   -3.793000    7.370000 CK    2 DG      0.0736 ****
 45 H8      1.847000   -3.466000    8.378000 H5    2 DG      0.1997 ****
 46 N7      1.167000   -4.041000    6.449000 NB    2 DG     -0.5725 ****
 47 C5      1.921000   -4.429000    5.349000 CB    2 DG      0.1991 ****
 48 C6      1.504000   -4.812000    4.056000 C     2 DG      0.4918 ****
 49 O6      0.355000   -4.904000    3.607000 O     2 DG     -0.5699 ****
 50 N1      2.587000   -5.130000    3.242000 NA    2 DG     -0.5053 ****
 51 H1      2.393000   -5.418000    2.304000 H     2 DG      0.3520 ****
 52 C2      3.904000   -5.079000    3.628000 CA    2 DG      0.7432 ****
 53 N2      4.806000   -5.421000    2.697000 N2    2 DG     -0.9230 ****
 54 H21     4.619000   -5.722000    1.751000 H     2 DG      0.4235 ****
 55 H22     5.775000   -5.394000    2.977000 H     2 DG      0.4235 ****
 56 N3      4.313000   -4.719000    4.837000 NC    2 DG     -0.6636 ****
 57 C4      3.268000   -4.407000    5.647000 CB    2 DG      0.1814 ****
 58 C3'     6.185000   -2.112000    8.308000 CE    2 DG      0.0713 ****
 59 H3'     6.060000   -1.060000    8.053000 H1    2 DG      0.0985 ****
 60 C2'     5.669000   -2.987000    7.145000 CT    2 DG     -0.0854 ****
 61 H2'     5.795000   -2.453000    6.203000 HC    2 DG      0.0718 ****
 62 H2''    6.234000   -3.919000    7.111000 HC    2 DG      0.0718 ****
 63 O3'     7.561000   -2.358000    8.571000 OS    2 DG     -0.5232 ****
 64 P       8.621000   -1.147000    8.592000 P     3 DT      1.1659 ****
 65 OP1     9.169000   -1.084000    9.969000 O2    3 DT     -0.7761 ****
 66 OP2     7.988000    0.056000    7.998000 O2    3 DT     -0.7761 ****
 67 O5'     9.776000   -1.634000    7.595000 OS    3 DT     -0.4954 ****
 68 C5'    10.331000   -0.724000    6.661000 CI    3 DT     -0.0069 ****
 69 H5'    11.415000   -0.798000    6.742000 H1    3 DT      0.0754 ****
 70 H5''   10.018000    0.296000    6.882000 H1    3 DT      0.0754 ****
 71 C4'     9.913000   -1.077000    5.248000 CT    3 DT      0.1629 ****
 72 H4'    10.465000   -1.963000    4.933000 H1    3 DT      0.1176 ****
 73 O4'     8.510000   -1.493000    5.225000 OS    3 DT     -0.3691 ****
 74 C1'     7.957000   -0.962000    4.050000 CT    3 DT      0.0680 ****
 75 H1'     8.251000   -1.566000    3.191000 H2    3 DT      0.1804 ****
 76 N1      6.451000   -1.056000    4.031000 N*    3 DT     -0.0239 ****
 77 C6      5.704000   -0.541000    5.070000 C2    3 DT     -0.2209 ****
 78 H6      6.224000   -0.015000    5.856000 H4    3 DT      0.2607 ****
 79 C5      4.358000   -0.611000    5.118000 C2    3 DT      0.0025 ****
 80 C7      3.577000   -0.056000    6.273000 CT    3 DT     -0.2269 ****
 81 H71     3.769000    1.013000    6.362000 HC    3 DT      0.0770 ****
 82 H72     2.512000   -0.221000    6.105000 HC    3 DT      0.0770 ****
 83 H73     3.880000   -0.558000    7.192000 HC    3 DT      0.0770 ****
 84 C4      3.668000   -1.235000    4.009000 C     3 DT      0.5194 ****
 85 O4      2.444000   -1.334000    3.967000 O     3 DT     -0.5563 ****
 86 N3      4.481000   -1.712000    2.999000 NA    3 DT     -0.4340 ****
 87 H3      3.974000   -2.182000    2.155000 H     3 DT      0.3420 ****
 88 C2      5.847000   -1.658000    2.945000 C     3 DT      0.5677 ****
 89 O2      6.473000   -2.111000    2.002000 O     3 DT     -0.5881 ****
 90 C3'    10.027000    0.079000    4.232000 CE    3 DT      0.0713 ****
 91 H3'    10.538000    0.956000    4.626000 H1    3 DT      0.0985 ****
 92 C2'     8.554000    0.425000    3.957000 CT    3 DT     -0.0854 ****
 93 H2'     8.345000    1.435000    4.309000 HC    3 DT      0.0718 ****
 94 H2''    8.360000    0.367000    2.886000 HC    3 DT      0.0718 ****
 95 O3'    10.754000   -0.364000    3.021000 OS    3 DT     -0.5232 ****
 96 P      10.032000   -0.387000    1.574000 P     4 DC      1.1659 ****
 97 OP1     9.484000    0.965000    1.293000 O2    4 DC     -0.7761 ****
 98 OP2     9.219000   -1.619000    1.444000 O2    4 DC     -0.7761 ****
 99 O5'    11.190000   -0.577000    0.500000 OS    4 DC     -0.4954 ****
100 C5'    11.210000    0.277000   -0.639000 CI    4 DC     -0.0069 ****
101 H5'    12.163000    0.104000   -1.139000 H1    4 DC      0.0754 ****
102 H5''   11.146000    1.320000   -0.329000 H1    4 DC      0.0754 ****
103 C4'    10.070000   -0.029000   -1.611000 CT    4 DC      0.1629 ****
104 H4'    10.318000   -0.954000   -2.132000 H1    4 DC      0.1176 ****
105 O4'     8.826000   -0.323000   -0.920000 OS    4 DC     -0.3691 ****
106 C1'     7.769000   -0.070000   -1.805000 CT    4 DC     -0.0116 ****
107 H1'     7.609000   -0.962000   -2.412000 H2    4 DC      0.1963 ****
108 N1      6.448000    0.086000   -1.035000 N*    4 DC     -0.0339 ****
109 C6      6.436000    0.644000    0.209000 CM    4 DC     -0.0183 ****
110 H6      7.362000    0.971000    0.657000 H4    4 DC      0.2293 ****
111 C5      5.289000    0.797000    0.895000 CM    4 DC     -0.5222 ****
112 H5      5.323000    1.254000    1.884000 HA    4 DC      0.1863 ****
113 C4      4.079000    0.351000    0.284000 CA    4 DC      0.8439 ****
114 N4      2.912000    0.473000    0.917000 N2    4 DC     -0.9773 ****
115 H41     2.083000    0.142000    0.442000 H     4 DC      0.4314 ****
116 H42     2.873000    0.884000    1.838000 H     4 DC      0.4314 ****
117 N3      4.063000   -0.194000   -0.924000 NC    4 DC     -0.7748 ****
118 C2      5.242000   -0.343000   -1.617000 C     4 DC      0.7959 ****
119 O2      5.276000   -0.847000   -2.749000 O     4 DC     -0.6548 ****
120 C3'     9.734000    1.113000   -2.567000 CE    4 DC      0.0713 ****
121 H3'    10.121000    2.058000   -2.188000 H1    4 DC      0.0985 ****
122 C2'     8.193000    1.166000   -2.602000 CT    4 DC     -0.0854 ****
123 H2'     7.866000    2.201000   -2.701000 HC    4 DC      0.0718 ****
124 H2''    7.828000    0.588000   -3.451000 HC    4 DC      0.0718 ****
125 O3'    10.327000    0.884000   -3.863000 OS    4 DC     -0.5232 ****
126 P       9.831000   -0.297000   -4.847000 P     5 DT      1.1659 ****
127 OP1     9.393000   -1.503000   -4.109000 O2    5 DT     -0.7761 ****
128 OP2    10.912000   -0.447000   -5.848000 O2    5 DT     -0.7761 ****
129 O5'     8.577000    0.336000   -5.616000 OS    5 DT     -0.4954 ****
130 C5'     7.278000   -0.277000   -5.543000 CI    5 DT     -0.0069 ****
131 H5'     7.082000   -0.526000   -4.500000 H1    5 DT      0.0754 ****
132 H5''    7.229000   -1.183000   -6.148000 H1    5 DT      0.0754 ****
133 C4'     6.227000    0.701000   -6.027000 CT    5 DT      0.1629 ****
134 H4'     5.591000    0.205000   -6.761000 H1    5 DT      0.1176 ****
135 O4'     5.326000    1.060000   -4.949000 OS    5 DT     -0.3691 ****
136 C1'     5.100000    2.451000   -4.984000 CT    5 DT      0.0680 ****
137 H1'     4.227000    2.722000   -5.578000 H2    5 DT      0.1804 ****
138 N1      4.724000    2.899000   -3.611000 N*    5 DT     -0.0239 ****
139 C6      5.710000    3.280000   -2.728000 C2    5 DT     -0.2209 ****
140 H6      6.726000    3.302000   -3.092000 H4    5 DT      0.2607 ****
141 C5      5.466000    3.677000   -1.470000 C2    5 DT      0.0025 ****
142 C7      6.570000    4.082000   -0.541000 CT    5 DT     -0.2269 ****
143 H71     7.109000    4.929000   -0.965000 HC    5 DT      0.0770 ****
144 H72     6.148000    4.365000    0.423000 HC    5 DT      0.0770 ****
145 H73     7.256000    3.246000   -0.405000 HC    5 DT      0.0770 ****
146 C4      4.096000    3.715000   -1.025000 C     5 DT      0.5194 ****
147 O4      3.778000    4.070000    0.105000 O     5 DT     -0.5563 ****
148 N3      3.165000    3.323000   -1.963000 NA    5 DT     -0.4340 ****
149 H3      2.124000    3.348000   -1.639000 H     5 DT      0.3420 ****
150 C2      3.401000    2.910000   -3.247000 C     5 DT      0.5677 ****
151 O2      2.500000    2.582000   -3.997000 O     5 DT     -0.5881 ****
152 C3'     6.804000    2.015000   -6.553000 CE    5 DT      0.0713 ****
153 H3'     7.888000    2.011000   -6.661000 H1    5 DT      0.0985 ****
154 C2'     6.399000    3.044000   -5.492000 CT    5 DT     -0.0854 ****
155 H2'     7.293000    3.485000   -5.053000 HC    5 DT      0.0718 ****
156 H2''    5.797000    3.826000   -5.955000 HC    5 DT      0.0718 ****
157 O3'     6.236000    2.303000   -7.799000 OS    5 DT     -0.5232 ****
158 P       6.812000    1.624000   -9.137000 P     6 DG      1.1659 ****
159 OP1     7.623000    0.438000   -8.764000 O2    6 DG     -0.7761 ****
160 OP2     7.437000    2.724000   -9.911000 O2    6 DG     -0.7761 ****
161 O5'     5.492000    1.120000   -9.909000 OS    6 DG     -0.4954 ****
162 C5'     4.961000    1.875000  -11.009000 CI    6 DG     -0.0069 ****
163 H5'     5.470000    1.590000  -11.930000 H1    6 DG      0.0754 ****
164 H5''    5.142000    2.930000  -10.806000 H1    6 DG      0.0754 ****
165 C4'     3.461000    1.647000  -11.174000 CT    6 DG      0.1629 ****
166 H4'     3.256000    0.598000  -11.392000 H1    6 DG      0.1176 ****
167 O4'     2.789000    1.894000   -9.913000 OS    6 DG     -0.3691 ****
168 C1'     2.298000    3.230000   -9.886000 CT    6 DG      0.0358 ****
169 H1'     1.241000    3.256000   -9.620000 H2    6 DG      0.1746 ****
170 N9      2.954000    3.911000   -8.770000 N*    6 DG      0.0577 ****
171 C8      4.300000    4.105000   -8.630000 CK    6 DG      0.0736 ****
172 H8      4.978000    3.756000   -9.395000 H5    6 DG      0.1997 ****
173 N7      4.634000    4.717000   -7.536000 NB    6 DG     -0.5725 ****
174 C5      3.430000    4.953000   -6.897000 CB    6 DG      0.1991 ****
175 C6      3.177000    5.593000   -5.667000 C     6 DG      0.4918 ****
176 O6      3.999000    6.088000   -4.886000 O     6 DG     -0.5699 ****
177 N1      1.821000    5.636000   -5.374000 NA    6 DG     -0.5053 ****
178 H1      1.545000    6.079000   -4.521000 H     6 DG      0.3520 ****
179 C2      0.825000    5.119000   -6.168000 CA    6 DG      0.7432 ****
180 N2     -0.430000    5.260000   -5.707000 N2    6 DG     -0.9230 ****
181 H21    -0.714000    5.692000   -4.840000 H     6 DG      0.4235 ****
182 H22    -1.168000    4.875000   -6.281000 H     6 DG      0.4235 ****
183 N3      1.047000    4.509000   -7.337000 NC    6 DG     -0.6636 ****
184 C4      2.373000    4.463000   -7.636000 CB    6 DG      0.1814 ****
185 C3'     2.782000    2.600000  -12.132000 CE    6 DG      0.0713 ****
186 H3'     3.347000    2.856000  -13.028000 H1    6 DG      0.0985 ****
187 C2'     2.635000    3.836000  -11.254000 CT    6 DG     -0.0854 ****
188 H2'     3.301000    4.619000  -11.615000 HC    6 DG      0.0718 ****
189 H2''    1.604000    4.189000  -11.294000 HC    6 DG      0.0718 ****
190 O3'     1.506000    2.083000  -12.528000 OS    6 DG     -0.5232 ****
191 P       0.525000    2.961000  -13.455000 P     7 DG3     1.1659 ****
192 OP1    -0.384000    2.032000  -14.167000 O2    7 DG3    -0.7761 ****
193 OP2     1.371000    3.892000  -14.237000 O2    7 DG3    -0.7761 ****
194 O5'    -0.327000    3.836000  -12.412000 OS    7 DG3    -0.4954 ****
195 C5'    -1.596000    3.376000  -11.943000 CI    7 DG3    -0.0069 ****
196 H5'    -1.398000    2.850000  -11.009000 H1    7 DG3     0.0754 ****
197 H5''   -2.071000    2.694000  -12.649000 H1    7 DG3     0.0754 ****
198 C4'    -2.533000    4.547000  -11.670000 CT    7 DG3     0.1629 ****
199 H4'    -3.510000    4.147000  -11.397000 H1    7 DG3     0.1176 ****
200 O4'    -2.089000    5.256000  -10.490000 OS    7 DG3    -0.3691 ****
201 C1'    -1.750000    6.597000  -10.783000 CT    7 DG3     0.0358 ****
202 H1'    -2.303000    7.266000  -10.124000 H2    7 DG3     0.1746 ****
203 N9     -0.353000    6.816000  -10.408000 N*    7 DG3     0.0577 ****
204 C8      0.747000    6.404000  -11.107000 CK    7 DG3     0.0736 ****
205 H8      0.631000    5.863000  -12.035000 H5    7 DG3     0.1997 ****
206 N7      1.876000    6.725000  -10.544000 NB    7 DG3    -0.5725 ****
207 C5      1.506000    7.397000   -9.394000 CB    7 DG3     0.1991 ****
208 C6      2.311000    7.980000   -8.392000 C     7 DG3     0.4918 ****
209 O6      3.547000    8.008000   -8.329000 O     7 DG3    -0.5699 ****
210 N1      1.546000    8.571000   -7.394000 NA    7 DG3    -0.5053 ****
211 H1      2.030000    9.011000   -6.639000 H     7 DG3     0.3520 ****
212 C2      0.170000    8.598000   -7.366000 CA    7 DG3     0.7432 ****
213 N2     -0.390000    9.222000   -6.317000 N2    7 DG3    -0.9230 ****
214 H21     0.089000    9.661000   -5.545000 H     7 DG3     0.4235 ****
215 H22    -1.400000    9.237000   -6.288000 H     7 DG3     0.4235 ****
216 N3     -0.602000    8.051000   -8.305000 NC    7 DG3    -0.6636 ****
217 C4      0.134000    7.469000   -9.287000 CB    7 DG3     0.1814 ****
218 C3'    -2.635000    5.563000  -12.804000 CE    7 DG3     0.0713 ****
219 H3'    -2.032000    5.200000  -13.636000 H1    7 DG3     0.0985 ****
220 C2'    -2.032000    6.867000  -12.265000 CT    7 DG3    -0.0854 ****
221 H2'    -1.567000    7.417000  -13.083000 HC    7 DG3     0.0718 ****
222 H2''   -2.820000    7.475000  -11.820000 HC    7 DG3     0.0718 ****
223 O3'    -3.958000    5.851000  -13.233000 OH    7 DG3    -0.6549 ****
224 HO3'   -4.023000    6.490000  -13.946000 HO    7 DG3     0.4396 ****
225 HO5'    4.218000   10.726000    2.019000 HO    8 DC5     0.4422 ****
226 O5'     3.651000   10.973000    1.285000 OH    8 DC5    -0.6318 ****
227 C5'     3.214000   12.330000    1.172000 CI    8 DC5    -0.0069 ****
228 H5'     4.092000   12.968000    1.079000 H1    8 DC5     0.0754 ****
229 H5''    2.655000   12.609000    2.065000 H1    8 DC5     0.0754 ****
230 C4'     2.329000   12.517000   -0.051000 CT    8 DC5     0.1629 ****
231 H4'     2.036000   13.564000   -0.129000 H1    8 DC5     0.1176 ****
232 O4'     3.090000   12.268000   -1.238000 OS    8 DC5    -0.3691 ****
233 C1'     2.198000   11.945000   -2.274000 CT    8 DC5    -0.0116 ****
234 H1'     1.876000   12.845000   -2.797000 H2    8 DC5     0.1963 ****
235 N1      2.958000   11.183000   -3.317000 N*    8 DC5    -0.0339 ****
236 C6      4.291000   10.952000   -3.127000 CM    8 DC5    -0.0183 ****
237 H6      4.778000   11.316000   -2.235000 H4    8 DC5     0.2293 ****
238 C5      5.008000   10.282000   -4.026000 CM    8 DC5    -0.5222 ****
239 H5      6.066000   10.105000   -3.836000 HA    8 DC5     0.1863 ****
240 C4      4.343000    9.828000   -5.199000 CA    8 DC5     0.8439 ****
241 N4      5.020000    9.155000   -6.131000 N2    8 DC5    -0.9773 ****
242 H41     4.513000    8.849000   -6.950000 H     8 DC5     0.4314 ****
243 H42     6.004000    8.965000   -6.008000 H     8 DC5     0.4314 ****
244 N3      3.043000   10.053000   -5.406000 NC    8 DC5    -0.7748 ****
245 C2      2.314000   10.733000   -4.485000 C     8 DC5     0.7959 ****
246 O2      1.102000   10.951000   -4.650000 O     8 DC5    -0.6548 ****
247 C3'     1.142000   11.565000   -0.137000 CE    8 DC5     0.0713 ****
248 H3'     1.280000   10.675000    0.477000 H1    8 DC5     0.0985 ****
249 C2'     1.064000   11.157000   -1.623000 CT    8 DC5    -0.0854 ****
250 H2'     0.670000   10.143000   -1.702000 HC    8 DC5     0.0718 ****
251 H2''    0.406000   11.844000   -2.155000 HC    8 DC5     0.0718 ****
252 O3'    -0.042000   12.230000    0.295000 OS    8 DC5    -0.5232 ****
253 P      -0.668000   11.877000    1.737000 P     9 DC      1.1659 ****
254 OP1    -2.092000   12.318000    1.793000 O2    9 DC     -0.7761 ****
255 OP2     0.316000   12.407000    2.718000 O2    9 DC     -0.7761 ****
256 O5'    -0.585000   10.265000    1.795000 OS    9 DC     -0.4954 ****
257 C5'    -1.723000    9.464000    2.187000 CI    9 DC     -0.0069 ****
258 H5'    -2.278000   10.034000    2.932000 H1    9 DC      0.0754 ****
259 H5''   -1.385000    8.525000    2.626000 H1    9 DC      0.0754 ****
260 C4'    -2.639000    9.162000    1.002000 CT    9 DC      0.1629 ****
261 H4'    -3.332000    9.995000    0.888000 H1    9 DC      0.1176 ****
262 O4'    -1.887000    9.141000   -0.244000 OS    9 DC     -0.3691 ****
263 C1'    -1.824000    7.819000   -0.762000 CT    9 DC     -0.0116 ****
264 H1'    -2.368000    7.751000   -1.705000 H2    9 DC      0.1963 ****
265 N1     -0.400000    7.547000   -1.153000 N*    9 DC     -0.0339 ****
266 C6      0.600000    7.915000   -0.301000 CM    9 DC     -0.0183 ****
267 H6      0.358000    8.385000    0.640000 H4    9 DC      0.2293 ****
268 C5      1.879000    7.704000   -0.609000 CM    9 DC     -0.5222 ****
269 H5      2.651000    8.004000    0.099000 HA    9 DC      0.1863 ****
270 C4      2.168000    7.086000   -1.860000 CA    9 DC      0.8439 ****
271 N4      3.434000    6.851000   -2.210000 N2    9 DC     -0.9773 ****
272 H41     3.600000    6.411000   -3.104000 H     9 DC      0.4314 ****
273 H42     4.189000    7.109000   -1.592000 H     9 DC      0.4314 ****
274 N3      1.204000    6.723000   -2.709000 NC    9 DC     -0.7748 ****
275 C2     -0.100000    6.941000   -2.391000 C     9 DC      0.7959 ****
276 O2     -1.021000    6.616000   -3.156000 O     9 DC     -0.6548 ****
277 C3'    -3.340000    7.821000    1.057000 CE    9 DC      0.0713 ****
278 H3'    -3.541000    7.431000    2.055000 H1    9 DC      0.0985 ****
279 C2'    -2.345000    6.906000    0.343000 CT    9 DC     -0.0854 ****
280 H2'    -1.896000    6.223000    1.064000 HC    9 DC      0.0718 ****
281 H2''   -2.865000    6.332000   -0.425000 HC    9 DC      0.0718 ****
282 O3'    -4.565000    7.910000    0.354000 OS    9 DC     -0.5232 ****
283 P      -5.818000    7.003000    0.791000 P    10 DA      1.1659 ****
284 OP1    -6.950000    7.895000    1.140000 O2   10 DA     -0.7761 ****
285 OP2    -5.346000    6.010000    1.790000 O2   10 DA     -0.7761 ****
286 O5'    -6.197000    6.238000   -0.560000 OS   10 DA     -0.4954 ****
287 C5'    -5.171000    5.822000   -1.463000 CI   10 DA     -0.0069 ****
288 H5'    -4.283000    5.552000   -0.892000 H1   10 DA      0.0754 ****
289 H5''   -4.927000    6.626000   -2.157000 H1   10 DA      0.0754 ****
290 C4'    -5.642000    4.619000   -2.245000 CT   10 DA      0.1629 ****
291 H4'    -5.962000    4.927000   -3.241000 H1   10 DA      0.1176 ****
292 O4'    -4.541000    3.719000   -2.482000 OS   10 DA     -0.3691 ****
293 C1'    -4.502000    2.734000   -1.464000 CT   10 DA      0.0431 ****
294 H1'    -4.277000    1.726000   -1.815000 H2   10 DA      0.1838 ****
295 N9     -3.371000    3.039000   -0.589000 N*   10 DA     -0.0268 ****
296 C8     -3.403000    3.411000    0.731000 C1   10 DA      0.1607 ****
297 H8     -4.342000    3.450000    1.263000 H5   10 DA      0.1877 ****
298 N7     -2.212000    3.633000    1.245000 NB   10 DA     -0.6175 ****
299 C5     -1.347000    3.400000    0.186000 CB   10 DA      0.0725 ****
300 C6      0.058000    3.464000    0.067000 CA   10 DA      0.6897 ****
301 N6      0.873000    3.800000    1.070000 N2   10 DA     -0.9123 ****
302 H61     1.871000    3.827000    0.921000 H    10 DA      0.4167 ****
303 H62     0.490000    4.026000    1.977000 H    10 DA      0.4167 ****
304 N1      0.594000    3.167000   -1.135000 NC   10 DA     -0.7624 ****
305 C2     -0.220000    2.831000   -2.137000 CQ   10 DA      0.5716 ****
306 H2      0.190000    2.586000   -3.106000 H5   10 DA      0.0598 ****
307 N3     -1.544000    2.739000   -2.148000 NC   10 DA     -0.7417 ****
308 C4     -2.050000    3.038000   -0.945000 CB   10 DA      0.3800 ****
309 C3'    -6.689000    3.789000   -1.527000 CE   10 DA      0.0713 ****
310 H3'    -7.270000    4.381000   -0.820000 H1   10 DA      0.0985 ****
311 C2'    -5.865000    2.732000   -0.759000 CT   10 DA     -0.0854 ****
312 H2'    -6.213000    2.678000    0.272000 HC   10 DA      0.0718 ****
313 H2''   -5.989000    1.758000   -1.234000 HC   10 DA      0.0718 ****
314 O3'    -7.625000    3.243000   -2.492000 OS   10 DA     -0.5232 ****
315 P      -7.915000    1.667000   -2.636000 P    11 DTM     1.1659 ****
316 OP1    -8.936000    1.575000   -3.703000 O2   11 DTM    -0.7761 ****
317 OP2    -8.208000    1.057000   -1.314000 O2   11 DTM    -0.7761 ****
318 O5'    -6.558000    1.062000   -3.248000 OS   11 DTM    -0.4954 ****
319 C5'    -6.579000   -0.232000   -3.841000 CI   11 DTM    -0.0069 ****
320 H5'    -7.149000   -0.140000   -4.766000 H1   11 DTM     0.0754 ****
321 H5''   -7.077000   -0.940000   -3.178000 H1   11 DTM     0.0754 ****
322 C4'    -5.180000   -0.746000   -4.164000 CT   11 DTM     0.1629 ****
323 H4'    -4.917000   -0.406000   -5.165000 H1   11 DTM     0.1176 ****
324 O4'    -4.183000   -0.135000   -3.296000 OS   11 DTM    -0.3691 ****
325 C1'    -3.137000   -1.066000   -3.176000 CT   11 DTM     0.0680 ****
326 H1'    -2.493000   -1.006000   -4.054000 H2   11 DTM     0.1804 ****
327 N1     -2.209000   -0.697000   -2.048000 N*   11 DTM    -0.0239 ****
328 C6     -2.724000   -0.351000   -0.818000 C2   11 DTM    -0.2209 ****
329 H6     -3.797000   -0.390000   -0.693000 H4   11 DTM     0.2607 ****
330 C5     -1.965000   -0.026000    0.235000 C2   11 DTM     0.0025 ****
331 C7     -2.570000    0.351000    1.551000 CT   11 DTM    -0.2269 ****
332 H71    -3.171000   -0.478000    1.926000 HC   11 DTM     0.0770 ****
333 H72    -1.778000    0.576000    2.264000 HC   11 DTM     0.0770 ****
334 H73    -3.203000    1.229000    1.422000 HC   11 DTM     0.0770 ****
335 C4     -0.522000   -0.054000    0.066000 C    11 DTM     0.5194 ****
336 O4      0.252000    0.217000    0.966000 O    11 DTM    -0.5563 ****
337 N3     -0.084000   -0.419000   -1.182000 NC   11 DTM    -0.4340 ****
338 H3      0.606000   -1.090000   -3.456000 HO   11 DTM     0.3420 ****
339 C2     -0.843000   -0.751000   -2.265000 C    11 DTM     0.5677 ****
340 O2     -0.345000   -1.062000   -3.334000 OH   11 DTM    -0.5881 ****
341 C3'    -5.000000   -2.269000   -3.991000 CE   11 DTM     0.0713 ****
342 H3'    -5.891000   -2.748000   -3.584000 H1   11 DTM     0.0985 ****
343 C2'    -3.847000   -2.392000   -2.984000 CT   11 DTM    -0.0854 ****
344 H2'    -4.154000   -3.033000   -2.157000 HC   11 DTM     0.0718 ****
345 H2''   -2.978000   -2.828000   -3.478000 HC   11 DTM     0.0718 ****
346 O3'    -4.678000   -2.894000   -5.245000 OS   11 DTM    -0.5232 ****
347 P      -4.495000   -4.493000   -5.332000 P    12 DA      1.1659 ****
348 OP1    -4.710000   -4.917000   -6.736000 O2   12 DA     -0.7761 ****
349 OP2    -5.314000   -5.105000   -4.259000 O2   12 DA     -0.7761 ****
350 O5'    -2.956000   -4.722000   -4.960000 OS   12 DA     -0.4954 ****
351 C5'    -1.936000   -4.007000   -5.657000 CI   12 DA     -0.0069 ****
352 H5'    -1.994000   -2.968000   -5.335000 H1   12 DA      0.0754 ****
353 H5''   -2.097000   -4.063000   -6.734000 H1   12 DA      0.0754 ****
354 C4'    -0.557000   -4.557000   -5.328000 CT   12 DA      0.1629 ****
355 H4'     0.158000   -4.157000   -6.047000 H1   12 DA      0.1176 ****
356 O4'    -0.110000   -4.045000   -4.046000 OS   12 DA     -0.3691 ****
357 C1'    -0.069000   -5.087000   -3.087000 CT   12 DA      0.0431 ****
358 H1'     0.935000   -5.289000   -2.715000 H2   12 DA      0.1838 ****
359 N9     -0.778000   -4.633000   -1.891000 N*   12 DA     -0.0268 ****
360 C8     -2.119000   -4.731000   -1.647000 C1   12 DA      0.1607 ****
361 H8     -2.762000   -5.234000   -2.355000 H5   12 DA      0.1877 ****
362 N7     -2.488000   -4.229000   -0.491000 NB   12 DA     -0.6175 ****
363 C5     -1.306000   -3.778000    0.072000 CB   12 DA      0.0725 ****
364 C6     -1.016000   -3.148000    1.304000 CA   12 DA      0.6897 ****
365 N6     -1.946000   -2.857000    2.219000 N2   12 DA     -0.9123 ****
366 H61    -1.681000   -2.406000    3.082000 H    12 DA      0.4167 ****
367 H62    -2.914000   -3.089000    2.046000 H    12 DA      0.4167 ****
368 N1      0.269000   -2.829000    1.558000 NC   12 DA     -0.7624 ****
369 C2      1.197000   -3.123000    0.639000 CQ   12 DA      0.5716 ****
370 H2      2.233000   -2.879000    0.820000 H5   12 DA      0.0598 ****
371 N3      1.048000   -3.711000   -0.553000 NC   12 DA     -0.7417 ****
372 C4     -0.239000   -4.018000   -0.779000 CB   12 DA      0.3800 ****
373 C3'    -0.482000   -6.069000   -5.219000 CE   12 DA      0.0713 ****
374 H3'    -1.243000   -6.598000   -5.794000 H1   12 DA      0.0985 ****
375 C2'    -0.708000   -6.314000   -3.731000 CT   12 DA     -0.0854 ****
376 H2'    -1.630000   -6.879000   -3.591000 HC   12 DA      0.0718 ****
377 H2''    0.129000   -6.881000   -3.324000 HC   12 DA      0.0718 ****
378 O3'     0.789000   -6.521000   -5.633000 OS   12 DA     -0.5232 ****
379 P       0.979000   -8.025000   -6.167000 P    13 DC      1.1659 ****
380 OP1     0.850000   -8.020000   -7.645000 O2   13 DC     -0.7761 ****
381 OP2     0.086000   -8.904000   -5.379000 O2   13 DC     -0.7761 ****
382 O5'     2.487000   -8.351000   -5.764000 OS   13 DC     -0.4954 ****
383 C5'     3.453000   -7.314000   -5.804000 CI   13 DC     -0.0069 ****
384 H5'     2.929000   -6.366000   -5.926000 H1   13 DC      0.0754 ****
385 H5''    4.136000   -7.461000   -6.640000 H1   13 DC      0.0754 ****
386 C4'     4.241000   -7.285000   -4.518000 CT   13 DC      0.1629 ****
387 H4'     5.063000   -6.576000   -4.611000 H1   13 DC      0.1176 ****
388 O4'     3.417000   -6.750000   -3.442000 OS   13 DC     -0.3691 ****
389 C1'     3.679000   -7.526000   -2.300000 CT   13 DC     -0.0116 ****
390 H1'     4.548000   -7.078000   -1.820000 H2   13 DC      0.1963 ****
391 N1      2.600000   -7.362000   -1.295000 N*   13 DC     -0.0339 ****
392 C6      1.341000   -7.815000   -1.561000 CM   13 DC     -0.0183 ****
393 H6      1.123000   -8.285000   -2.509000 H4   13 DC      0.2293 ****
394 C5      0.359000   -7.687000   -0.660000 CM   13 DC     -0.5222 ****
395 H5     -0.644000   -8.035000   -0.910000 HA   13 DC      0.1863 ****
396 C4      0.687000   -7.085000    0.594000 CA   13 DC      0.8439 ****
397 N4     -0.247000   -6.925000    1.539000 N2   13 DC     -0.9773 ****
398 H41     0.033000   -6.495000    2.408000 H    13 DC      0.4314 ****
399 H42    -1.196000   -7.230000    1.373000 H    13 DC      0.4314 ****
400 N3      1.922000   -6.656000    0.867000 NC   13 DC     -0.7748 ****
401 C2      2.906000   -6.787000   -0.054000 C    13 DC      0.7959 ****
402 O2      4.063000   -6.402000    0.166000 O    13 DC     -0.6548 ****
403 C3'     4.709000   -8.665000   -4.037000 CE   13 DC      0.0713 ****
404 H3'     4.588000   -9.467000   -4.767000 H1   13 DC      0.0985 ****
405 C2'     3.806000   -8.930000   -2.837000 CT   13 DC     -0.0854 ****
406 H2'     3.147000   -9.771000   -3.056000 HC   13 DC      0.0718 ****
407 H2''    4.417000   -9.166000   -1.966000 HC   13 DC      0.0718 ****
408 O3'     6.069000   -8.602000   -3.648000 OS   13 DC     -0.5232 ****
409 P       6.907000   -9.951000   -3.397000 P    14 DA3     1.1659 ****
410 OP1     7.970000   -9.971000   -4.425000 O2   14 DA3    -0.7761 ****
411 OP2     5.960000  -11.089000   -3.320000 O2   14 DA3    -0.7761 ****
412 O5'     7.567000   -9.732000   -1.944000 OS   14 DA3    -0.4954 ****
413 C5'     6.814000   -9.091000   -0.895000 CI   14 DA3    -0.0069 ****
414 H5'     5.822000   -8.854000   -1.281000 H1   14 DA3     0.0754 ****
415 H5''    7.316000   -8.172000   -0.596000 H1   14 DA3     0.0754 ****
416 C4'     6.675000  -10.002000    0.315000 CT   14 DA3     0.1629 ****
417 H4'     7.524000   -9.851000    0.981000 H1   14 DA3     0.1176 ****
418 O4'     5.513000   -9.602000    1.107000 OS   14 DA3    -0.3691 ****
419 C1'     4.728000  -10.760000    1.322000 CT   14 DA3     0.0431 ****
420 H1'     5.048000  -11.228000    2.253000 H2   14 DA3     0.1838 ****
421 N9      3.334000  -10.414000    1.590000 N*   14 DA3    -0.0268 ****
422 C8      2.254000  -10.646000    0.779000 C1   14 DA3     0.1607 ****
423 H8      2.383000  -11.151000   -0.167000 H5   14 DA3     0.1877 ****
424 N7      1.111000  -10.260000    1.298000 NB   14 DA3    -0.6175 ****
425 C5      1.466000   -9.757000    2.541000 CB   14 DA3     0.0725 ****
426 C6      0.716000   -9.189000    3.592000 CA   14 DA3     0.6897 ****
427 N6     -0.614000   -9.025000    3.548000 N2   14 DA3    -0.9123 ****
428 H61    -1.099000   -8.612000    4.332000 H    14 DA3     0.4167 ****
429 H62    -1.132000   -9.315000    2.730000 H    14 DA3     0.4167 ****
430 N1      1.390000   -8.787000    4.696000 NC   14 DA3    -0.7624 ****
431 C2      2.717000   -8.952000    4.737000 CQ   14 DA3     0.5716 ****
432 H2      3.273000   -8.641000    5.608000 H5   14 DA3     0.0598 ****
433 N3      3.526000   -9.472000    3.821000 NC   14 DA3    -0.7417 ****
434 C4      2.834000   -9.857000    2.736000 CB   14 DA3     0.3800 ****
435 C3'     6.437000  -11.482000   -0.018000 CE   14 DA3     0.0713 ****
436 H3'     6.761000  -11.804000   -1.008000 H1   14 DA3     0.0985 ****
437 C2'     4.929000  -11.589000    0.079000 CT   14 DA3    -0.0854 ****
438 H2'     4.504000  -11.661000   -0.923000 HC   14 DA3     0.0718 ****
439 H2''    4.663000  -12.479000    0.650000 HC   14 DA3     0.0718 ****
440 O3'     7.040000  -12.299000    0.962000 OH   14 DA3    -0.6549 ****
441 HO3'    6.934000  -13.244000    0.823000 HO   14 DA3     0.4396 ****
442 HO5'   -0.423000   11.850000   -2.094000 HO   15 DA5     0.4422 ****
443 O5'     0.427000   12.174000   -1.788000 OH   15 DA5    -0.6318 ****
444 C5'     1.443000   12.490000   -2.756000 CI   15 DA5    -0.0069 ****
445 H5'     1.100000   13.255000   -3.453000 H1   15 DA5     0.0754 ****
446 H5''    1.674000   11.577000   -3.305000 H1   15 DA5     0.0754 ****
447 C4'     2.695000   12.980000   -2.053000 CT   15 DA5     0.1629 ****
448 H4'     3.574000   12.944000   -2.696000 H1   15 DA5     0.1176 ****
449 O4'     2.477000   14.370000   -1.823000 OS   15 DA5    -0.3691 ****
450 C1'     2.308000   14.667000   -0.452000 CT   15 DA5     0.0431 ****
451 H1'     3.091000   15.300000   -0.035000 H2   15 DA5     0.1838 ****
452 N9      1.098000   15.532000   -0.370000 N*   15 DA5    -0.0268 ****
453 C8     -0.229000   15.169000   -0.385000 C1   15 DA5     0.1607 ****
454 H8     -0.503000   14.125000   -0.417000 H5   15 DA5     0.1877 ****
455 N7     -1.050000   16.170000   -0.296000 NB   15 DA5    -0.6175 ****
456 C5     -0.219000   17.279000   -0.217000 CB   15 DA5     0.0725 ****
457 C6     -0.482000   18.654000   -0.105000 CA   15 DA5     0.6897 ****
458 N6     -1.719000   19.168000   -0.051000 N2   15 DA5    -0.9123 ****
459 H61    -1.848000   20.166000    0.030000 H    15 DA5     0.4167 ****
460 H62    -2.522000   18.557000   -0.091000 H    15 DA5     0.4167 ****
461 N1      0.575000   19.484000   -0.051000 NC   15 DA5    -0.7624 ****
462 C2      1.802000   18.967000   -0.105000 CQ   15 DA5     0.5716 ****
463 H2      2.665000   19.615000   -0.062000 H5   15 DA5     0.0598 ****
464 N3      2.168000   17.708000   -0.209000 NC   15 DA5    -0.7417 ****
465 C4      1.091000   16.898000   -0.262000 CB   15 DA5     0.3800 ****
466 C3'     2.950000   12.393000   -0.665000 CE   15 DA5     0.0713 ****
467 H3'     2.586000   11.371000   -0.554000 H1   15 DA5     0.0985 ****
468 C2'     2.148000   13.321000    0.247000 CT   15 DA5    -0.0854 ****
469 H2'     1.344000   12.759000    0.722000 HC   15 DA5     0.0718 ****
470 H2''    2.804000   13.733000    1.014000 HC   15 DA5     0.0718 ****
471 O3'     4.324000   12.455000   -0.307000 OS   15 DA5    -0.5232 ****
472 P       4.728000   12.374000    1.239000 P    16 DC3     1.1659 ****
473 OP1     6.009000   11.644000    1.380000 O2   16 DC3    -0.7761 ****
474 OP2     3.592000   11.836000    2.021000 O2   16 DC3    -0.7761 ****
475 O5'     4.945000   13.919000    1.592000 OS   16 DC3    -0.4954 ****
476 C5'     5.582000   14.773000    0.624000 CI   16 DC3    -0.0069 ****
477 H5'     4.855000   15.191000   -0.072000 H1   16 DC3     0.0754 ****
478 H5''    6.306000   14.171000    0.075000 H1   16 DC3     0.0754 ****
479 C4'     6.306000   15.905000    1.327000 CT   16 DC3     0.1629 ****
480 H4'     7.038000   16.393000    0.684000 H1   16 DC3     0.1176 ****
481 O4'     5.313000   16.901000    1.557000 OS   16 DC3    -0.3691 ****
482 C1'     5.002000   17.042000    2.928000 CT   16 DC3    -0.0116 ****
483 H1'     5.272000   18.039000    3.278000 H2   16 DC3     0.1963 ****
484 N1      3.515000   17.031000    3.010000 N*   16 DC3    -0.0339 ****
485 C6      2.819000   15.862000    2.981000 CM   16 DC3    -0.0183 ****
486 H6      3.346000   14.923000    2.898000 H4   16 DC3     0.2293 ****
487 C5      1.464000   15.852000    3.055000 CM   16 DC3    -0.5222 ****
488 H5      0.924000   14.905000    3.030000 HA   16 DC3     0.1863 ****
489 C4      0.811000   17.122000    3.165000 CA   16 DC3     0.8439 ****
490 N4     -0.509000   17.187000    3.242000 N2   16 DC3    -0.9773 ****
491 H41    -0.930000   18.102000    3.319000 H    16 DC3     0.4314 ****
492 H42    -1.062000   16.342000    3.224000 H    16 DC3     0.4314 ****
493 N3      1.506000   18.267000    3.193000 NC   16 DC3    -0.7748 ****
494 C2      2.861000   18.256000    3.117000 C    16 DC3     0.7959 ****
495 O2      3.536000   19.292000    3.139000 O    16 DC3    -0.6548 ****
496 C3'     6.858000   15.580000    2.715000 CE   16 DC3     0.0713 ****
497 H3'     7.164000   14.540000    2.826000 H1   16 DC3     0.0985 ****
498 C2'     5.664000   15.859000    3.627000 CT   16 DC3    -0.0854 ****
499 H2'     5.344000   14.931000    4.102000 HC   16 DC3     0.0718 ****
500 H2''    5.952000   16.578000    4.394000 HC   16 DC3     0.0718 ****
501 O3'     7.933000   16.438000    3.073000 OH   16 DC3    -0.6549 ****
502 HO3'    8.313000   16.272000    3.939000 HO   16 DC3     0.4396 ****
503 HO5'   -5.133000   26.344000    5.475000 HO   17 DG5     0.4422 ****
504 O5'    -4.255000   26.582000    5.168000 OH   17 DG5    -0.6318 ****
505 C5'    -3.246000   26.924000    6.136000 CI   17 DG5    -0.0069 ****
506 H5'    -3.073000   26.103000    6.832000 H1   17 DG5     0.0754 ****
507 H5''   -3.595000   27.798000    6.685000 H1   17 DG5     0.0754 ****
508 C4'    -1.946000   27.263000    5.433000 CT   17 DG5     0.1629 ****
509 H4'    -1.256000   27.809000    6.077000 H1   17 DG5     0.1176 ****
510 O4'    -1.305000   26.011000    5.203000 OS   17 DG5    -0.3691 ****
511 C1'    -1.268000   25.671000    3.832000 CT   17 DG5     0.0358 ****
512 H1'    -0.237000   25.620000    3.480000 H2   17 DG5     0.1746 ****
513 N9     -1.738000   24.260000    3.750000 N*   17 DG5     0.0577 ****
514 C8     -3.025000   23.769000    3.764000 CK   17 DG5     0.0736 ****
515 H8     -3.861000   24.448000    3.845000 H5   17 DG5     0.1997 ****
516 N7     -3.098000   22.463000    3.675000 NB   17 DG5    -0.5725 ****
517 C5     -1.766000   22.061000    3.596000 CB   17 DG5     0.1991 ****
518 C6     -1.210000   20.760000    3.483000 C    17 DG5     0.4918 ****
519 O6     -1.787000   19.678000    3.427000 O    17 DG5    -0.5699 ****
520 N1      0.191000   20.806000    3.433000 NA   17 DG5    -0.5053 ****
521 H1      0.677000   19.936000    3.351000 H    17 DG5     0.3520 ****
522 C2      0.953000   21.956000    3.486000 CA   17 DG5     0.7432 ****
523 N2      2.275000   21.787000    3.423000 N2   17 DG5    -0.9230 ****
524 H21     2.773000   20.911000    3.353000 H    17 DG5     0.4235 ****
525 H22     2.839000   22.623000    3.470000 H    17 DG5     0.4235 ****
526 N3      0.429000   23.176000    3.592000 NC   17 DG5    -0.6636 ****
527 C4     -0.928000   23.150000    3.641000 CB   17 DG5     0.1814 ****
528 C3'    -2.084000   27.888000    4.045000 CE   17 DG5     0.0713 ****
529 H3'    -2.978000   28.501000    3.934000 H1   17 DG5     0.0985 ****
530 C2'    -2.188000   26.666000    3.133000 CT   17 DG5    -0.0854 ****
531 H2'    -3.169000   26.649000    2.658000 HC   17 DG5     0.0718 ****
532 H2''   -1.415000   26.717000    2.367000 HC   17 DG5     0.0718 ****
533 O3'    -0.936000   28.645000    3.687000 OS   17 DG5    -0.5232 ****
534 P      -0.657000   28.949000    2.141000 P    18 DT3     1.1659 ****
535 OP1    -0.050000   30.292000    2.000000 O2   18 DT3    -0.7761 ****
536 OP2    -1.892000   28.716000    1.359000 O2   18 DT3    -0.7761 ****
537 O5'     0.427000   27.826000    1.788000 OS   18 DT3    -0.4954 ****
538 C5'     1.443000   27.510000    2.756000 CI   18 DT3    -0.0069 ****
539 H5'     1.100000   26.745000    3.453000 H1   18 DT3     0.0754 ****
540 H5''    1.674000   28.423000    3.305000 H1   18 DT3     0.0754 ****
541 C4'     2.695000   27.020000    2.053000 CT   18 DT3     0.1629 ****
542 H4'     3.574000   27.056000    2.696000 H1   18 DT3     0.1176 ****
543 O4'     2.477000   25.630000    1.823000 OS   18 DT3    -0.3691 ****
544 C1'     2.308000   25.333000    0.452000 CT   18 DT3     0.0680 ****
545 H1'     3.094000   24.693000    0.051000 H2   18 DT3     0.1804 ****
546 N1      1.098000   24.468000    0.370000 N*   18 DT3    -0.0239 ****
547 C6     -0.158000   25.012000    0.400000 C2   18 DT3    -0.2209 ****
548 H6     -0.280000   26.084000    0.439000 H4   18 DT3     0.2607 ****
549 C5     -1.255000   24.240000    0.327000 C2   18 DT3     0.0025 ****
550 C7     -2.636000   24.826000    0.358000 CT   18 DT3    -0.2269 ****
551 H71    -2.760000   25.509000   -0.482000 HC   18 DT3     0.0770 ****
552 H72    -3.373000   24.026000    0.287000 HC   18 DT3     0.0770 ****
553 H73    -2.780000   25.369000    1.292000 HC   18 DT3     0.0770 ****
554 C4     -1.141000   22.806000    0.214000 C    18 DT3     0.5194 ****
555 O4     -2.087000   22.018000    0.141000 O    18 DT3    -0.5563 ****
556 N3      0.159000   22.344000    0.191000 NA   18 DT3    -0.4340 ****
557 H3      0.296000   21.266000    0.105000 H    18 DT3     0.3420 ****
558 C2      1.304000   23.113000    0.265000 C    18 DT3     0.5677 ****
559 O2      2.414000   22.612000    0.237000 O    18 DT3    -0.5881 ****
560 C3'     2.950000   27.607000    0.665000 CE   18 DT3     0.0713 ****
561 H3'     2.586000   28.629000    0.554000 H1   18 DT3     0.0985 ****
562 C2'     2.148000   26.679000   -0.247000 CT   18 DT3    -0.0854 ****
563 H2'     1.344000   27.241000   -0.722000 HC   18 DT3     0.0718 ****
564 H2''    2.804000   26.267000   -1.014000 HC   18 DT3     0.0718 ****
565 O3'     4.324000   27.545000    0.307000 OH   18 DT3    -0.6549 ****
566 HO3'    4.534000   27.903000   -0.559000 HO   18 DT3     0.4396 ****
@<TRIPOS>BOND
    1    30    31 1
    2    27    28 1
    3    27    29 1
    4    25    26 1
    5    25    27 1
    6    25    30 1
    7    23    24 1
    8    21    22 1
    9    21    23 1
   10    19    20 1
   11    19    21 1
   12    15    16 1
   13    15    17 1
   14    15    18 1
   15    14    15 1
   16    14    19 1
   17    12    13 1
   18    12    14 1
   19    11    12 1
   20    11    23 1
   21     9    10 1
   22     9    11 1
   23     9    27 1
   24     8     9 1
   25     6     7 1
   26     6     8 1
   27     6    25 1
   28     3     4 1
   29     3     5 1
   30     3     6 1
   31     2     3 1
   32     1     2 1
   33    63    64 1
   34    60    61 1
   35    60    62 1
   36    58    59 1
   37    58    60 1
   38    58    63 1
   39    56    57 1
   40    53    54 1
   41    53    55 1
   42    52    53 1
   43    52    56 1
   44    50    51 1
   45    50    52 1
   46    48    49 1
   47    48    50 1
   48    47    48 1
   49    47    57 1
   50    46    47 1
   51    44    45 1
   52    44    46 1
   53    43    44 1
   54    43    57 1
   55    41    42 1
   56    41    43 1
   57    41    60 1
   58    40    41 1
   59    38    39 1
   60    38    40 1
   61    38    58 1
   62    35    36 1
   63    35    37 1
   64    35    38 1
   65    34    35 1
   66    31    32 1
   67    31    33 1
   68    31    34 1
   69    95    96 1
   70    92    93 1
   71    92    94 1
   72    90    91 1
   73    90    92 1
   74    90    95 1
   75    88    89 1
   76    86    87 1
   77    86    88 1
   78    84    85 1
   79    84    86 1
   80    80    81 1
   81    80    82 1
   82    80    83 1
   83    79    80 1
   84    79    84 1
   85    77    78 1
   86    77    79 1
   87    76    77 1
   88    76    88 1
   89    74    75 1
   90    74    76 1
   91    74    92 1
   92    73    74 1
   93    71    72 1
   94    71    73 1
   95    71    90 1
   96    68    69 1
   97    68    70 1
   98    68    71 1
   99    67    68 1
  100    64    65 1
  101    64    66 1
  102    64    67 1
  103   125   126 1
  104   122   123 1
  105   122   124 1
  106   120   121 1
  107   120   122 1
  108   120   125 1
  109   118   119 1
  110   117   118 1
  111   114   115 1
  112   114   116 1
  113   113   114 1
  114   113   117 1
  115   111   112 1
  116   111   113 1
  117   109   110 1
  118   109   111 1
  119   108   109 1
  120   108   118 1
  121   106   107 1
  122   106   108 1
  123   106   122 1
  124   105   106 1
  125   103   104 1
  126   103   105 1
  127   103   120 1
  128   100   101 1
  129   100   102 1
  130   100   103 1
  131    99   100 1
  132    96    97 1
  133    96    98 1
  134    96    99 1
  135   157   158 1
  136   154   155 1
  137   154   156 1
  138   152   153 1
  139   152   154 1
  140   152   157 1
  141   150   151 1
  142   148   149 1
  143   148   150 1
  144   146   147 1
  145   146   148 1
  146   142   143 1
  147   142   144 1
  148   142   145 1
  149   141   142 1
  150   141   146 1
  151   139   140 1
  152   139   141 1
  153   138   139 1
  154   138   150 1
  155   136   137 1
  156   136   138 1
  157   136   154 1
  158   135   136 1
  159   133   134 1
  160   133   135 1
  161   133   152 1
  162   130   131 1
  163   130   132 1
  164   130   133 1
  165   129   130 1
  166   126   127 1
  167   126   128 1
  168   126   129 1
  169   190   191 1
  170   187   188 1
  171   187   189 1
  172   185   186 1
  173   185   187 1
  174   185   190 1
  175   183   184 1
  176   180   181 1
  177   180   182 1
  178   179   180 1
  179   179   183 1
  180   177   178 1
  181   177   179 1
  182   175   176 1
  183   175   177 1
  184   174   175 1
  185   174   184 1
  186   173   174 1
  187   171   172 1
  188   171   173 1
  189   170   171 1
  190   170   184 1
  191   168   169 1
  192   168   170 1
  193   168   187 1
  194   167   168 1
  195   165   166 1
  196   165   167 1
  197   165   185 1
  198   162   163 1
  199   162   164 1
  200   162   165 1
  201   161   162 1
  202   158   159 1
  203   158   160 1
  204   158   161 1
  205   223   224 1
  206   220   221 1
  207   220   222 1
  208   218   219 1
  209   218   220 1
  210   218   223 1
  211   216   217 1
  212   213   214 1
  213   213   215 1
  214   212   213 1
  215   212   216 1
  216   210   211 1
  217   210   212 1
  218   208   209 1
  219   208   210 1
  220   207   208 1
  221   207   217 1
  222   206   207 1
  223   204   205 1
  224   204   206 1
  225   203   204 1
  226   203   217 1
  227   201   202 1
  228   201   203 1
  229   201   220 1
  230   200   201 1
  231   198   199 1
  232   198   200 1
  233   198   218 1
  234   195   196 1
  235   195   197 1
  236   195   198 1
  237   194   195 1
  238   191   192 1
  239   191   193 1
  240   191   194 1
  241   252   253 1
  242   249   250 1
  243   249   251 1
  244   247   248 1
  245   247   249 1
  246   247   252 1
  247   245   246 1
  248   244   245 1
  249   241   242 1
  250   241   243 1
  251   240   241 1
  252   240   244 1
  253   238   239 1
  254   238   240 1
  255   236   237 1
  256   236   238 1
  257   235   236 1
  258   235   245 1
  259   233   234 1
  260   233   235 1
  261   233   249 1
  262   232   233 1
  263   230   231 1
  264   230   232 1
  265   230   247 1
  266   227   228 1
  267   227   229 1
  268   227   230 1
  269   226   227 1
  270   225   226 1
  271   282   283 1
  272   279   280 1
  273   279   281 1
  274   277   278 1
  275   277   279 1
  276   277   282 1
  277   275   276 1
  278   274   275 1
  279   271   272 1
  280   271   273 1
  281   270   271 1
  282   270   274 1
  283   268   269 1
  284   268   270 1
  285   266   267 1
  286   266   268 1
  287   265   266 1
  288   265   275 1
  289   263   264 1
  290   263   265 1
  291   263   279 1
  292   262   263 1
  293   260   261 1
  294   260   262 1
  295   260   277 1
  296   257   258 1
  297   257   259 1
  298   257   260 1
  299   256   257 1
  300   253   254 1
  301   253   255 1
  302   253   256 1
  303   314   315 1
  304   311   312 1
  305   311   313 1
  306   309   310 1
  307   309   311 1
  308   309   314 1
  309   307   308 1
  310   305   306 1
  311   305   307 1
  312   304   305 1
  313   301   302 1
  314   301   303 1
  315   300   301 1
  316   300   304 1
  317   299   300 1
  318   299   308 1
  319   298   299 1
  320   296   297 1
  321   296   298 1
  322   295   296 1
  323   295   308 1
  324   293   294 1
  325   293   295 1
  326   293   311 1
  327   292   293 1
  328   290   291 1
  329   290   292 1
  330   290   309 1
  331   287   288 1
  332   287   289 1
  333   287   290 1
  334   286   287 1
  335   283   284 1
  336   283   285 1
  337   283   286 1
  338   346   347 1
  339   343   344 1
  340   343   345 1
  341   341   342 1
  342   341   343 1
  343   341   346 1
  344   339   340 1
  345   338   340 1
  346   337   339 1
  347   335   336 1
  348   335   337 1
  349   331   332 1
  350   331   333 1
  351   331   334 1
  352   330   331 1
  353   330   335 1
  354   328   329 1
  355   328   330 1
  356   327   328 1
  357   327   339 1
  358   325   326 1
  359   325   327 1
  360   325   343 1
  361   324   325 1
  362   322   323 1
  363   322   324 1
  364   322   341 1
  365   319   320 1
  366   319   321 1
  367   319   322 1
  368   318   319 1
  369   315   316 1
  370   315   317 1
  371   315   318 1
  372   378   379 1
  373   375   376 1
  374   375   377 1
  375   373   374 1
  376   373   375 1
  377   373   378 1
  378   371   372 1
  379   369   370 1
  380   369   371 1
  381   368   369 1
  382   365   366 1
  383   365   367 1
  384   364   365 1
  385   364   368 1
  386   363   364 1
  387   363   372 1
  388   362   363 1
  389   360   361 1
  390   360   362 1
  391   359   360 1
  392   359   372 1
  393   357   358 1
  394   357   359 1
  395   357   375 1
  396   356   357 1
  397   354   355 1
  398   354   356 1
  399   354   373 1
  400   351   352 1
  401   351   353 1
  402   351   354 1
  403   350   351 1
  404   347   348 1
  405   347   349 1
  406   347   350 1
  407   408   409 1
  408   405   406 1
  409   405   407 1
  410   403   404 1
  411   403   405 1
  412   403   408 1
  413   401   402 1
  414   400   401 1
  415   397   398 1
  416   397   399 1
  417   396   397 1
  418   396   400 1
  419   394   395 1
  420   394   396 1
  421   392   393 1
  422   392   394 1
  423   391   392 1
  424   391   401 1
  425   389   390 1
  426   389   391 1
  427   389   405 1
  428   388   389 1
  429   386   387 1
  430   386   388 1
  431   386   403 1
  432   383   384 1
  433   383   385 1
  434   383   386 1
  435   382   383 1
  436   379   380 1
  437   379   381 1
  438   379   382 1
  439   440   441 1
  440   437   438 1
  441   437   439 1
  442   435   436 1
  443   435   437 1
  444   435   440 1
  445   433   434 1
  446   431   432 1
  447   431   433 1
  448   430   431 1
  449   427   428 1
  450   427   429 1
  451   426   427 1
  452   426   430 1
  453   425   426 1
  454   425   434 1
  455   424   425 1
  456   422   423 1
  457   422   424 1
  458   421   422 1
  459   421   434 1
  460   419   420 1
  461   419   421 1
  462   419   437 1
  463   418   419 1
  464   416   417 1
  465   416   418 1
  466   416   435 1
  467   413   414 1
  468   413   415 1
  469   413   416 1
  470   412   413 1
  471   409   410 1
  472   409   411 1
  473   409   412 1
  474   471   472 1
  475   468   469 1
  476   468   470 1
  477   466   467 1
  478   466   468 1
  479   466   471 1
  480   464   465 1
  481   462   463 1
  482   462   464 1
  483   461   462 1
  484   458   459 1
  485   458   460 1
  486   457   458 1
  487   457   461 1
  488   456   457 1
  489   456   465 1
  490   455   456 1
  491   453   454 1
  492   453   455 1
  493   452   453 1
  494   452   465 1
  495   450   451 1
  496   450   452 1
  497   450   468 1
  498   449   450 1
  499   447   448 1
  500   447   449 1
  501   447   466 1
  502   444   445 1
  503   444   446 1
  504   444   447 1
  505   443   444 1
  506   442   443 1
  507   501   502 1
  508   498   499 1
  509   498   500 1
  510   496   497 1
  511   496   498 1
  512   496   501 1
  513   494   495 1
  514   493   494 1
  515   490   491 1
  516   490   492 1
  517   489   490 1
  518   489   493 1
  519   487   488 1
  520   487   489 1
  521   485   486 1
  522   485   487 1
  523   484   485 1
  524   484   494 1
  525   482   483 1
  526   482   484 1
  527   482   498 1
  528   481   482 1
  529   479   480 1
  530   479   481 1
  531   479   496 1
  532   476   477 1
  533   476   478 1
  534   476   479 1
  535   475   476 1
  536   472   473 1
  537   472   474 1
  538   472   475 1
  539   533   534 1
  540   530   531 1
  541   530   532 1
  542   528   529 1
  543   528   530 1
  544   528   533 1
  545   526   527 1
  546   523   524 1
  547   523   525 1
  548   522   523 1
  549   522   526 1
  550   520   521 1
  551   520   522 1
  552   518   519 1
  553   518   520 1
  554   517   518 1
  555   517   527 1
  556   516   517 1
  557   514   515 1
  558   514   516 1
  559   513   514 1
  560   513   527 1
  561   511   512 1
  562   511   513 1
  563   511   530 1
  564   510   511 1
  565   508   509 1
  566   508   510 1
  567   508   528 1
  568   505   506 1
  569   505   507 1
  570   505   508 1
  571   504   505 1
  572   503   504 1
  573   565   566 1
  574   562   563 1
  575   562   564 1
  576   560   561 1
  577   560   562 1
  578   560   565 1
  579   558   559 1
  580   556   557 1
  581   556   558 1
  582   554   555 1
  583   554   556 1
  584   550   551 1
  585   550   552 1
  586   550   553 1
  587   549   550 1
  588   549   554 1
  589   547   548 1
  590   547   549 1
  591   546   547 1
  592   546   558 1
  593   544   545 1
  594   544   546 1
  595   544   562 1
  596   543   544 1
  597   541   542 1
  598   541   543 1
  599   541   560 1
  600   538   539 1
  601   538   540 1
  602   538   541 1
  603   537   538 1
  604   534   535 1
  605   534   536 1
  606   534   537 1
@<TRIPOS>SUBSTRUCTURE
      1  DT5              1 ****               0 ****  **** 
      2   DG             31 ****               0 ****  **** 
      3   DT             64 ****               0 ****  **** 
      4   DC             96 ****               0 ****  **** 
      5   DT            126 ****               0 ****  **** 
      6   DG            158 ****               0 ****  **** 
      7  DG3            191 ****               0 ****  **** 
      8  DC5            225 ****               0 ****  **** 
      9   DC            253 ****               0 ****  **** 
     10   DA            283 ****               0 ****  **** 
     11  DTM            315 ****               0 ****  **** 
     12   DA            347 ****               0 ****  **** 
     13   DC            379 ****               0 ****  **** 
     14  DA3            409 ****               0 ****  **** 
     15  DA5            442 ****               0 ****  **** 
     16  DC3            472 ****               0 ****  **** 
     17  DG5            503 ****               0 ****  **** 
     18  DT3            534 ****               0 ****  **** 
